<?xml version="1.0" encoding="UTF-8"?>

<!-- generated on 2023-11-21 19:01:43 by Eclipse SUMO netconvert Version 1.18.0
<configuration xmlns:xsi="http://www.w3.org/2001/XMLSchema-instance" xsi:noNamespaceSchemaLocation="http://sumo.dlr.de/xsd/netconvertConfiguration.xsd">

    <input>
        <sumo-net-file value=".\net1.net.xml"/>
    </input>

    <output>
        <plain-output-prefix value="plain_output"/>
    </output>

    <processing>
        <geometry.min-radius.fix.railways value="false"/>
        <geometry.max-grade.fix value="false"/>
        <offset.disable-normalization value="true"/>
        <lefthand value="0"/>
    </processing>

    <junctions>
        <no-turnarounds value="true"/>
        <junctions.corner-detail value="5"/>
        <junctions.limit-turn-speed value="5.50"/>
        <rectangular-lane-cut value="0"/>
    </junctions>

    <pedestrian>
        <walkingareas value="0"/>
    </pedestrian>

</configuration>
-->

<nodes version="1.16" xmlns:xsi="http://www.w3.org/2001/XMLSchema-instance" xsi:noNamespaceSchemaLocation="http://sumo.dlr.de/xsd/nodes_file.xsd">
    <location netOffset="0.00,0.00" convBoundary="-84.43,9.80,113.75,118.20" origBoundary="-10000000000.00,-10000000000.00,10000000000.00,10000000000.00" projParameter="!"/>

    <node id="J10" x="113.75" y="9.80" type="dead_end"/>
    <node id="J11" x="-84.43" y="45.66" type="dead_end"/>
    <node id="J6" x="-46.35" y="46.08" type="priority"/>
    <node id="J7" x="36.58" y="86.87" type="priority"/>
    <node id="J8" x="64.04" y="27.28" type="priority"/>
    <node id="J9" x="49.24" y="118.20" type="dead_end"/>
</nodes>
